Version 4
SHEET 1 2644 680
WIRE 1904 -16 1680 -16
WIRE 2624 -16 1984 -16
WIRE 2272 80 2128 80
WIRE 2624 80 2624 -16
WIRE 2624 80 2352 80
WIRE 16 208 -16 208
WIRE 128 208 96 208
WIRE 240 208 208 208
WIRE 352 208 320 208
WIRE 464 208 432 208
WIRE 576 208 544 208
WIRE 688 208 656 208
WIRE 800 208 768 208
WIRE 896 208 880 208
WIRE 912 208 896 208
WIRE 1024 208 992 208
WIRE 1136 208 1104 208
WIRE 1248 208 1216 208
WIRE 1360 208 1328 208
WIRE 1456 208 1440 208
WIRE 1472 208 1456 208
WIRE 1584 208 1552 208
WIRE 1680 208 1680 -16
WIRE 1680 208 1664 208
WIRE 1696 208 1680 208
WIRE 1792 208 1776 208
WIRE 1808 208 1792 208
WIRE 1920 208 1888 208
WIRE 2032 208 2000 208
WIRE 2128 208 2128 80
WIRE 2128 208 2112 208
WIRE 2144 208 2128 208
WIRE 2256 208 2224 208
WIRE 2352 208 2336 208
WIRE 2368 208 2352 208
WIRE 2480 208 2448 208
WIRE 2624 208 2624 80
WIRE 2624 208 2560 208
WIRE -16 304 -16 208
WIRE 896 304 896 208
WIRE 1456 304 1456 208
WIRE 1792 304 1792 208
WIRE 2352 304 2352 208
WIRE -16 432 -16 384
WIRE 896 432 896 384
WIRE 1456 432 1456 384
WIRE 1792 432 1792 384
WIRE 2352 432 2352 384
WIRE 2624 432 2624 208
FLAG -16 432 0
FLAG 2624 432 0
FLAG 2352 432 0
FLAG 1792 432 0
FLAG 1456 432 0
FLAG 896 432 0
SYMBOL res 112 192 R90
WINDOW 0 0 56 VBottom 2
WINDOW 3 32 56 VTop 2
SYMATTR InstName R1
SYMBOL res 224 192 R90
WINDOW 0 0 56 VBottom 2
WINDOW 3 32 56 VTop 2
SYMATTR InstName R2
SYMBOL res 336 192 R90
WINDOW 0 0 56 VBottom 2
WINDOW 3 32 56 VTop 2
SYMATTR InstName R3
SYMBOL res 448 192 R90
WINDOW 0 0 56 VBottom 2
WINDOW 3 32 56 VTop 2
SYMATTR InstName R4
SYMBOL res 560 192 R90
WINDOW 0 0 56 VBottom 2
WINDOW 3 32 56 VTop 2
SYMATTR InstName R5
SYMBOL res 672 192 R90
WINDOW 0 0 56 VBottom 2
WINDOW 3 32 56 VTop 2
SYMATTR InstName R6
SYMBOL res 784 192 R90
WINDOW 0 0 56 VBottom 2
WINDOW 3 32 56 VTop 2
SYMATTR InstName R7
SYMBOL res 896 192 R90
WINDOW 0 0 56 VBottom 2
WINDOW 3 32 56 VTop 2
SYMATTR InstName R8
SYMBOL res 1008 192 R90
WINDOW 0 0 56 VBottom 2
WINDOW 3 32 56 VTop 2
SYMATTR InstName R9
SYMBOL res 1120 192 R90
WINDOW 0 0 56 VBottom 2
WINDOW 3 32 56 VTop 2
SYMATTR InstName R10
SYMBOL res 1232 192 R90
WINDOW 0 0 56 VBottom 2
WINDOW 3 32 56 VTop 2
SYMATTR InstName R11
SYMBOL res 1344 192 R90
WINDOW 0 0 56 VBottom 2
WINDOW 3 32 56 VTop 2
SYMATTR InstName R12
SYMBOL res 1456 192 R90
WINDOW 0 0 56 VBottom 2
WINDOW 3 32 56 VTop 2
SYMATTR InstName R13
SYMBOL res 1568 192 R90
WINDOW 0 0 56 VBottom 2
WINDOW 3 32 56 VTop 2
SYMATTR InstName R14
SYMBOL res 1680 192 R90
WINDOW 0 0 56 VBottom 2
WINDOW 3 32 56 VTop 2
SYMATTR InstName R15
SYMBOL res 1792 192 R90
WINDOW 0 0 56 VBottom 2
WINDOW 3 32 56 VTop 2
SYMATTR InstName R16
SYMBOL res 1904 192 R90
WINDOW 0 0 56 VBottom 2
WINDOW 3 32 56 VTop 2
SYMATTR InstName R17
SYMBOL res 2016 192 R90
WINDOW 0 0 56 VBottom 2
WINDOW 3 32 56 VTop 2
SYMATTR InstName R18
SYMBOL res 2128 192 R90
WINDOW 0 0 56 VBottom 2
WINDOW 3 32 56 VTop 2
SYMATTR InstName R19
SYMBOL res 2240 192 R90
WINDOW 0 0 56 VBottom 2
WINDOW 3 32 56 VTop 2
SYMATTR InstName R20
SYMBOL res 2352 192 R90
WINDOW 0 0 56 VBottom 2
WINDOW 3 32 56 VTop 2
SYMATTR InstName R21
SYMBOL res 2464 192 R90
WINDOW 0 0 56 VBottom 2
WINDOW 3 32 56 VTop 2
SYMATTR InstName R22
SYMBOL res 2576 192 R90
WINDOW 0 0 56 VBottom 2
WINDOW 3 32 56 VTop 2
SYMATTR InstName R23
SYMBOL res 2368 64 R90
WINDOW 0 0 56 VBottom 2
WINDOW 3 32 56 VTop 2
SYMATTR InstName R24
SYMBOL res 2000 -32 R90
WINDOW 0 0 56 VBottom 2
WINDOW 3 32 56 VTop 2
SYMATTR InstName R25
SYMBOL res 0 400 R180
WINDOW 0 36 76 Left 2
WINDOW 3 36 40 Left 2
SYMATTR InstName R26
SYMBOL current 896 384 R180
WINDOW 0 24 80 Left 2
WINDOW 3 24 0 Left 2
SYMATTR InstName I1
SYMBOL current 1456 384 R180
WINDOW 0 24 80 Left 2
WINDOW 3 24 0 Left 2
SYMATTR InstName I2
SYMBOL current 1792 384 R180
WINDOW 0 24 80 Left 2
WINDOW 3 24 0 Left 2
SYMATTR InstName I3
SYMBOL current 2352 384 R180
WINDOW 0 24 80 Left 2
WINDOW 3 24 0 Left 2
SYMATTR InstName I4
